      1 'GENROU' 1     8.0000      0.30000E-01  0.40000      0.50000E-01
          6.5000       0.0000       1.8000       1.7000      0.30000
         0.30000      0.25000       0.0000       0.0000       0.0000    /
      2 'GENROU' 1     8.0000      0.30000E-01  0.40000      0.50000E-01
          6.5000       0.0000       1.8000       1.7000      0.30000
         0.30000      0.25000       0.0000       0.0000       0.0000    /
      3 'GENROU' 1     8.0000      0.30000E-01  0.40000      0.50000E-01
          6.5000       0.0000       1.8000       1.7000      0.30000
         0.30000      0.25000       0.0000       0.0000       0.0000    /
      4 'GENROU' 1     8.0000      0.30000E-01  0.40000      0.50000E-01
          6.5000       0.0000       1.8000       1.7000      0.30000
         0.30000      0.25000       0.0000       0.0000       0.0000    /
      1 'ESST1A' 1     1     1 0.800000E-02  999.000     -999.000     0.530000      2.39000      0.00000      0.00000      300.000    
  0.290000E-01  999.000     -999.000      6.50000     -2.27000     0.220000      0.00000      1.00000      0.00000      99.0000     /
      2 'ESST1A' 1     1     1 0.800000E-02  999.000     -999.000     0.530000      2.39000      0.00000      0.00000      300.000    
  0.290000E-01  999.000     -999.000      6.50000     -2.27000     0.220000      0.00000      1.00000      0.00000      99.0000     /
      3 'ESST1A' 1     1     1 0.800000E-02  999.000     -999.000     0.530000      2.39000      0.00000      0.00000      300.000    
  0.290000E-01  999.000     -999.000      6.50000     -2.27000     0.220000      0.00000      1.00000      0.00000      99.0000     /
      4 'ESST1A' 1     1     1 0.800000E-02  999.000     -999.000     0.530000      2.39000      0.00000      0.00000      300.000    
  0.290000E-01  999.000     -999.000      6.50000     -2.27000     0.220000      0.00000      1.00000      0.00000      99.0000     /

  
      1 'WSIEG1' 1     0 0   20.0000     0.100000      0.00000     0.500000E-01  3.40000     -3.40000      1.05000      0.00000     0.400000     0.307000    
      0.00000      11.3100     0.693000      0.00000      0.00000      0.00000      0.00000      0.00000      0.00000      0.00000    
      0.00000      0.00000      0.00000      0.00000      0.00000      1.05000     0.890625      0.00000      0.00000      0.00000    
      0.00000      0.00000      0.00000     0. /
      2 'WSIEG1' 1     0 0   20.0000     0.100000      0.00000     0.500000E-01  3.40000     -3.40000      1.05000      0.00000     0.400000     0.307000    
      0.00000      11.3100     0.693000      0.00000      0.00000      0.00000      0.00000      0.00000      0.00000      0.00000    
      0.00000      0.00000      0.00000      0.00000      0.00000      1.05000     0.890625      0.00000      0.00000      0.00000    
      0.00000      0.00000      0.00000     0. / 
      3 'WSIEG1' 1     0 0   20.0000     0.100000      0.00000     0.500000E-01  3.40000     -3.40000      1.05000      0.00000     0.400000     0.307000    
      0.00000      11.3100     0.693000      0.00000      0.00000      0.00000      0.00000      0.00000      0.00000      0.00000    
      0.00000      0.00000      0.00000      0.00000      0.00000      1.05000     0.890625      0.00000      0.00000      0.00000    
      0.00000      0.00000      0.00000     0. / 
      4 'WSIEG1' 1     0 0   20.0000     0.100000      0.00000     0.500000E-01  3.40000     -3.40000      1.05000      0.00000     0.400000     0.307000    
      0.00000      11.3100     0.693000      0.00000      0.00000      0.00000      0.00000      0.00000      0.00000      0.00000    
      0.00000      0.00000      0.00000      0.00000      0.00000      1.05000     0.890625      0.00000      0.00000      0.00000    
      0.00000      0.00000      0.00000     0. / 	 
    
 '1           '     'CDC6T '        0.0000       17.000      0.50000E-01
         0.20000E-01  0.15000      0.35000      0.50000E-01  0.15000
         0.35000      0.50000E-01   0.0000       160.00       99.000
          99.000       160.00       0.0000       384.00       500.00
          2000.0       500.00       2000.0      0.50000E-01  0.10000
          99.000      0.10000       0.0000       0.0000      0.10000
          99.000       0.0000      0.10000      0.50000E-01/

