1   'GENSAL'   1   8.96   0.04   0.06   23.64   0.0   0.146   0.0969   0.0608   0.04   0.0336   0.0   0.0   /
2   'GENROU'   1   6.0   0.033   0.54   0.078   6.4   0.0   0.8958   0.8645   0.1189   0.1969   0.089   0.0521   0.0   0.0   /
3   'GENROU'   1   5.89   0.033   0.6   0.07   3.01   0.0   1.313   1.258   0.1813   0.25   0.107   0.0742   0.0   0.0   /
5,  'USRLOD'  1  'CMLDBLU2'        12    1    2  133   27  146   48 0 0
				0 , 1 ,2 ,3 ,4 ,5 ,6 ,7 ,8 ,9 ,10 , 
				11 ,12 ,13 ,14 ,15 ,16 ,17 ,18 ,19 ,20 , 
				21 ,22 ,23 ,24 ,25 ,26 ,27 ,28 ,29 ,30 , 
				31 ,32 ,33 ,34 ,35 ,36 ,37 ,38 ,39 ,40 , 
				41 ,42 ,43 ,44 ,45 ,46 ,47 ,48 ,49 ,50 ,
				51 ,52 ,53 ,54 ,55 ,56 ,57 ,58 ,59 ,60 , 
				61 ,62 ,63 ,64 ,65 ,66 ,67 ,68 ,69 ,70 , 
				71 ,72 ,73 ,74 ,75 ,76 ,77 ,78 ,79 ,80 , 
				81 ,82 ,83 ,84 ,85 ,86 ,87 ,88 ,89 ,90 , 
				91 ,92 ,93 ,94 ,95 ,96 ,97 ,98 ,99 ,100 , 
				101 ,102 ,103 ,104 ,105 ,106 ,107 ,108 ,109 ,110 , 
				111 ,112 ,113 ,114 ,115 ,116 ,117 ,118 ,119 ,120 , 
				121 ,122 ,123 ,124 ,125 ,126 ,127 ,128 ,129 ,130 ,
				131 , 132 /