1   'GENSAL'   1   8.96   0.04   0.06   23.64   0.0   0.146   0.0969   0.0608   0.04   0.0336   0.0   0.0   /
2   'GENROU'   1   6.0   0.033   0.54   0.078   6.4   0.0   0.8958   0.8645   0.1189   0.1969   0.089   0.0521   0.0   0.0   /
3   'GENROU'   1   5.89   0.033   0.6   0.07   3.01   0.0   1.313   1.258   0.1813   0.25   0.107   0.0742   0.0   0.0   /

1 'IEEEX1' 1  0.200000E-01  30.0000     0.500000E-01 0.500000     0.500000      3.50000     -3.50000     -.170000    
 0.950000     0.400000E-01  1.00000      0.00000      3.37000     0.220000      4.49000     0.950000     / DICKSON9  25.000
 
2 'EXST1' 1  0.100000E-01  99.0000     -99.0000     0.440000E-01 0.300000      312.000     0.500000E-02  5.10000    
  0.00000      0.00000     0.360000E-01 0.450000/ 
  
3  'EXAC1' 1  0.200000E-01  0.00000      0.00000      280.000     0.200000E-01  5.00000     -3.70000      2.27000    
 0.185000      1.38000     0.283000      0.00000     0.750000E-01  3.09000     0.232000      4.12000     0.233000     / WHITEGE9  12.500