0,   100.00, 30, 0, 1,  60.00     / PSS(R)E 30 RAW created by rawd30  SAT, FEB 05 2011  18:16
PSS(R)E SAMPLE CASE
ALL DATA CATEGORIES WITH SEQUENCE DATA


