0,   100.00, 31, 0, 1, 60.00     / PSS(R)E-31.2    MON, JUN 27 2011   8:53
TASMO MODEL; OUTPUT GENERATED 2010-09-16 09:31:29
SWINGBUS 1520 FOR FC-2009-9:2011-10-15:3:33--1-0-0-0
     1,'JUDY515S    ',  69.0000,1,  26,  99,  17,1.02114,   2.9693
     2,'MAYERTH     ', 138.0000,1,  40,  99,  17,1.02884,   6.7034
     3,'COLINTO7    ', 138.0000,1,  27,  99,  17,1.02928,   4.3484
     4,'WESTLOC7    ', 138.0000,1,  27,  99,  17,1.03860,   6.9916
     5,'CLYDE  7    ', 138.0000,1,  27,  99,  17,1.03467,   6.7579
     6,'DICKSOA9    ',   4.1600,2,  39,  99,   7,1.02500,   9.9632
     7,'BOYLE  7    ', 138.0000,1,  27,  99,  17,1.02812,   3.3963
     8,'WHI 3647    ', 138.0000,1,  26,  99,  17,1.03206,   5.7876
     9,'WHITECO7    ', 138.0000,1,  26,  99,  17,1.03129,   5.5080
    10,'WHITECO8    ',  69.0000,1,  26,  99,  17,1.04742,   5.8873
    11,'JUDY CR8    ',  69.0000,1,  26,  99,  17,1.02169,   2.9683
    12,'FOX CREE    ', 138.0000,1,  24,  99,  17,1.03140,   4.2589
    13,'KAYBOB 7    ', 138.0000,1,  24,  99,  17,1.02181,   5.1089
    14,'WESGEN 9    ',  13.8000,2,  27,  99,   4,1.02500,   9.4239
    15,'MTN COA7    ', 138.0000,1,  29,  99,  17,1.00848,   6.9268
    16,'FLATBUS7    ', 138.0000,1,  27,  99,  17,1.03607,   7.0719
    17,'COLD CR7    ', 138.0000,1,  29,  99,  17,1.00239,   6.8329
    18,'GULF RO7    ', 138.0000,1,  29,  99,  17,1.01687,   7.6419
    19,'WESGEN T    ', 138.0000,1,  27,  99,  17,1.03868,   7.2910
    20,'EDSON  7    ', 138.0000,1,  29,  99,  17,1.01856,   7.8495
    21,'WESGEN 7    ', 138.0000,1,  27,  99,   4,1.03881,   7.5643
    23,'PEMBINA8    ',  69.0000,1,  30,  99,  17,1.00450,   6.9266
    25,'ENTWIST8    ',  69.0000,1,  40,  99,  17,1.03948,   6.9712
    26,'ENTWIST7    ', 138.0000,1,  40,  99,  17,1.02543,   8.0787
    27,'WABAMUN8    ',  69.0000,1,  40,  99,  17,1.02635,   9.2060
    28,'MOON LA8    ',  69.0000,1,  30,  99,  17,1.01338,   6.5650
    29,'EASYFOR8    ',  69.0000,1,  30,  99,  17,0.99917,   7.0777
    30,'DRAYTON8    ',  69.0000,1,  30,  99,  17,1.00614,   6.9874
    31,'FINCAST7    ', 138.0000,1,  52,  99,  17,1.02059,   4.0933
    32,'ONOWAY 8    ',  69.0000,1,  40,  99,  17,1.00880,   7.6179
    33,'BRAZEAA9    ',  13.2000,2,  30,  99,  17,1.01454,   7.4393
    34,'LODGEPO8    ',  69.0000,1,  30,  99,  17,1.01410,   7.9126
    35,'LODGEPO7    ', 138.0000,1,  30,  99,  17,1.00004,   8.5530
    36,'BRAZEAU7    ', 138.0000,1,  30,  99,  17,1.02182,   7.6800
    37,'HRT EXP7    ', 138.0000,1,  32,  99,  25,1.04274,  10.9852
    38,'BRAZ OUT    ', 138.0000,1,  30,  99,  17,1.01454,   7.4393
    39,'CYNTHIA7    ', 138.0000,1,  30,  99,  17,0.99998,   7.7111
    40,'N CALDE7    ', 138.0000,1,  60,  99,  17,1.03546,   9.4882
    41,'N BARRH7    ', 138.0000,1,  40,  99,  17,1.04991,   7.6216
    42,'AMOCO BR    ', 138.0000,1,  30,  99,  17,1.00055,   7.0888
    43,'SCOTF_4     ', 138.0000,2,  33,  99,  29,1.02533,  10.1769
    44,'FT ASBN7    ', 138.0000,1,  40,  99,  17,1.04525,   6.1146
    46,'N BARRH8    ',  69.0000,1,  40,  99,  17,1.02034,   7.2478
    47,'SHERWOO7    ', 138.0000,1,  60,  99,  17,1.03900,   9.9949
    48,'DIAM SH7    ', 138.0000,1,  33,  99,  17,1.02935,  10.2252
    49,'KEYSTON7    ', 138.0000,1,  30,  99,  17,1.00577,  14.4943
    50,'RIVERSID    ', 138.0000,2,  33,  99, 211,1.03000,  10.0363
    51,'W PEMBI7    ', 138.0000,1,  30,  99,  17,0.99942,   7.1589
    52,'BLUERIDG    ', 138.0000,1,  26,  99,  17,1.02675,   5.7163
    53,'SANDYPT7    ', 138.0000,1,  48,  99,  17,1.07073,   5.9773
    55,'GULF OI7    ', 138.0000,1,  60,  99,  17,1.04150,  10.1999
    56,'IPPL ED7    ', 138.0000,1,  60,  99,  17,1.04204,  10.2293
    57,'LAMOURE4    ', 240.0000,1,  33,  99,  17,1.03937,  11.0847
    58,'FORT SA7    ', 138.0000,1,  60,  99,  17,1.03794,  10.1383
    59,'REDWATE7    ', 138.0000,1,  33,  99,  17,1.02217,   9.6616
    60,'BEAMER 7    ', 138.0000,1,  33,  99,  17,1.02555,   9.8889
    61,'UN CARB9    ', 138.0000,2,  33,  99, 191,1.04000,  10.2191
    62,'SHERRIT7    ', 138.0000,1,  33,  99,  17,1.03872,  10.1427
    63,'LAMOURE7    ', 138.0000,1,  33,  99,  17,1.04157,  10.2400
    64,'BANFF  7    ', 138.0000,1,  44,  99,  17,1.04232,  -3.3642
    65,'BARDO  7    ', 138.0000,1,  31,  99,  17,1.04183,   8.9098
    66,'IOL 737L    ', 138.0000,1,  60,  99,  17,1.04087,  10.1882
    67,'BRUDERH7    ', 138.0000,1,  33,  99,  17,1.03700,   9.9375
    68,'N HOLDE7    ', 138.0000,1,  56,  99,  17,1.04891,   8.9928
    69,'IOL 738L    ', 138.0000,1,  60,  99,  17,1.03751,   9.9442
    70,'CAMROSE7    ', 138.0000,1,  31,  99,  17,1.03590,   8.5254
    71,'JARROW 8    ',  69.0000,1,  32,  99,  17,1.06038,  10.4951
    72,'JARROW 7    ', 138.0000,1,  32,  99,  17,1.04198,  10.5049
    73,'HARDIST7    ', 138.0000,1,  32,  99,  17,1.04299,  11.0386
    74,'METIS647    ', 138.0000,1,  37,  99,  17,1.04055,   8.8935
    75,'HUGHEND7    ', 138.0000,1,  37,  99,  17,1.03821,   9.7333
    76,'IPPL ST7    ', 138.0000,1,  56,  99,  17,1.05873,  11.6087
    77,'WAINWRI8    ',  69.0000,1,  32,  99,  17,1.06203,  10.3892
    78,'SEDGEWI7    ', 138.0000,1,  32,  99,  17,1.05262,  12.7757
    79,'BUFFALO7    ', 138.0000,1,  32,  99,  17,1.03289,   8.1614
    80,'BUCKLAK7    ', 138.0000,1,  30,  99,  17,0.99359,  10.9071
    81,'BIGSTON4    ', 240.0000,1,  31,  99,  17,1.04068,  11.4553
    82,'CHEVRON7    ', 138.0000,1,  24,  99,  17,1.02167,   5.1035
    83,'RBCUPIL7    ', 138.0000,1,  17,  99,  21,1.08271,   0.6531
    85,'MILLAR 7    ', 138.0000,1,  26,  99,  17,1.01863,   5.3337
    86,'PROVOST7    ', 138.0000,1,  37,  99,  17,1.03378,   8.5159
    87,'METIS644    ', 240.0000,1,  37,  99,  17,1.07009,  10.6135
    88,'BICKERD7    ', 138.0000,1,  29,  99,  17,1.02277,   8.7163
    89,'E EDMON7    ', 138.0000,1,  60,  99,  17,1.04275,  10.2727
    90,'BICKERD4    ', 240.0000,1,  29,  99,  17,1.08120,  10.2208
    91,'NISKU  7    ', 138.0000,1,  60,  99,  17,1.03703,   8.2567
    93,'WETASKI7    ', 138.0000,1,  31,  99,  17,1.03362,   8.6100
    94,'ERVICK 7    ', 138.0000,1,  31,  99,  17,1.03440,   8.4469
    95,'PONOKA 7    ', 138.0000,1,  31,  99,  17,1.02572,   6.6491
    96,'DEVON  7    ', 138.0000,1,  60,  99,  17,1.03012,   8.0438
    97,'ECKVILL7    ', 138.0000,1,  35,  99,  17,1.03678,   5.5039
    98,'RIMBEY 7    ', 138.0000,1,  35,  99,  17,1.03244,   5.0418
    99,'BENALTO7    ', 138.0000,1,  35,  99,  17,1.04125,   5.8492
   100,'ROCKY M7    ', 138.0000,1,  38,  99,  17,1.02549,   4.0154
   101,'COOKING7    ', 138.0000,1,  60,  99,  17,1.03963,   9.2741
   102,'BIGHORN1    ',  13.8000,2,  34,  99,  17,0.97029,   6.7284
   103,'BIG HOR7    ', 138.0000,1,  34,  99,  17,1.03498,   6.7284
   104,'STRACHA7    ', 138.0000,1,  38,  99,  17,1.02282,   3.5075
   105,'PIGEON 7    ', 138.0000,1,  31,  99,  17,1.03509,   8.6350
   106,'DEERLAN7    ', 138.0000,1,  33,  99,  17,1.03309,  10.0934
   107,'SUNDRE 7    ', 138.0000,1,  38,  99,  17,1.00681,   1.2840
   108,'BIGHORN2    ',  13.8000,2,  34,  99,  17,0.97200,  11.7275
   109,'DEERLAN4    ', 240.0000,1,  33,  99,  17,1.05537,  10.7170
   110,'IPL EDM7    ', 138.0000,1,  60,  99,  17,1.04203,  10.2290
   111,'SANDHIL7    ', 138.0000,1,  48,  99,  17,1.07083,   5.9839
   112,'SUNKEN7     ', 138.0000,1,  37,  99,  17,1.04049,   8.9007
   113,'BLACKFA7    ', 138.0000,1,  35,  99,  17,1.03203,   5.7960
   114,'LACOMBE7    ', 138.0000,1,  35,  99,  17,1.02827,   5.9351
   115,'S RED DE    ', 138.0000,1,  35,  99,  17,1.03516,   5.8555
   116,'W LACOMB    ', 138.0000,1,  35,  99,  17,1.02934,   6.0024
   117,'RED DE A    ', 138.0000,1,  35,  99,  17,1.03465,   5.9748
   118,'RED DE B    ', 138.0000,1,  35,  99,  17,1.03465,   5.9748
   119,'N RED D7    ', 138.0000,1,  35,  99,  17,1.03759,   5.8226
   120,'INNISFA7    ', 138.0000,1,  39,  99,  17,1.02372,   4.2298
   121,'OLDS   7    ', 138.0000,1,  39,  99,  17,1.01283,   1.8782
   122,'MADDEN 7    ', 138.0000,1,  39,  99,  17,1.01324,  -0.0029
   123,'DIDSBURY    ', 138.0000,1,  39,  99,  17,1.01275,   1.0004
   124,'HARMATT7    ', 138.0000,1,  39,  99,  17,1.00930,   0.9174
   125,'YASAA7      ', 138.0000,1,  60,  99,  17,1.04189,  10.2224
   126,'SHELL H7    ', 138.0000,1,  39,  99,  17,1.01176,   0.8845
   127,'BEDDING2    ', 138.0000,1,   6,  99,   3,1.02593,   2.3185
   128,'ELLERSLI    ', 240.0000,1,  50,  99,  17,1.04657,  14.5099
   130,'SUND#3GN    ',  20.0000,2,  40,  99,  17,0.98400,  21.0881
   131,'SUNDANA8    ',  69.0000,1,  40,  99,  17,1.01268,  11.2236
   132,'SUNDANC7    ', 138.0000,1,  40,  99,  17,1.03428,  13.1281
   133,'WABAMUN4    ', 240.0000,1,  50,  99,  17,1.05960,  12.3475
   134,'WABAMUN7    ', 138.0000,1,  40,  99,  17,1.03485,  10.0883
   135,'SUNDANC4    ', 240.0000,1,  50,  99,  17,1.07042,  13.3783
   136,'E EDMON4    ', 240.0000,1,  50,  99,  17,1.04168,  13.5010
   137,'N CALDE4    ', 240.0000,1,  60,  99,  17,1.04085,  11.4429
   138,'N BARRH4    ', 240.0000,1,  51,  99,  17,1.08238,   9.3331
   141,'DALEHUR7    ', 138.0000,1,  29,  99,  17,1.00840,   6.9588
   142,'KINGMAN7    ', 138.0000,1,  31,  99,  17,1.04011,   8.7707
   143,'WHITEWO7    ', 138.0000,1,  40,  99,  17,1.03282,   9.6927
   144,'ALGAR  7    ', 138.0000,1,  25,  99,   1,1.07905,   7.8518
   147,'GAETZ  4    ', 240.0000,1,  50,  99,  17,1.02206,   8.1091
   148,'GAETZ  7    ', 138.0000,1,  35,  99,  17,1.04099,   5.9670
   150,'WILLESD4    ', 240.0000,1,  50,  99,  17,1.04308,   8.5013
   151,'BRAZ#1 9    ',  13.8000,2,  30,  99,  17,1.04797,   8.4500
   152,'RED DEE4    ', 240.0000,1,  50,  99,  17,1.03825,   8.0239
   153,'BRAZEAU4    ', 240.0000,1,  50,  99,  17,1.04000,   8.3122
   154,'BRAZ#2 9    ',  13.8000,2,  30,  99,  17,0.97052,   8.3122
   155,'BENALTO4    ', 240.0000,1,  50,  99,  17,1.04806,   9.3148
   156,'E CROSS4    ', 240.0000,1,  50,  99,  17,1.04627,   4.7971
   157,'COCHIN 8    ',  69.0000,1,  32,  99, 241,1.06204,  10.3876
   158,'LANGDON2    ', 500.0000,1,  50,  99,  17,1.07612,   3.2499
   159,'LANGDON4    ', 240.0000,1,  50,  99,  17,1.05400,   3.7487
   160,'JANET  4    ', 240.0000,1,  50,  99,  17,1.04743,   3.6376
   161,'SARCEE 4    ', 240.0000,1,  50,  99,  17,1.03952,   2.9985
   162,'E CALGAR    ', 240.0000,1,  50,  99,  17,1.04113,   3.0450
   163,'SAGITAW4    ', 240.0000,1,  26,  99,  17,1.07721,   7.3351
   164,'SAGITAW7    ', 138.0000,1,  26,  99,  17,1.03419,   6.0968
   165,'PEIGAN 4    ', 240.0000,1,  53,  99, 191,1.08550,   6.3076
   166,'PEIGAN 7    ', 138.0000,1,  53,  99, 191,1.08281,   7.7180
   167,'N LETHB4    ', 240.0000,1,  54,  99,  17,1.08040,   5.6258
   168,'SUNSHIN8    ',  69.0000,1,  44,  99,  17,0.98658,  -9.3165
   169,'CAN CEM7    ', 138.0000,1,  44,  99,  17,1.04104,  -2.6017
   170,'COCHRAN7    ', 138.0000,1,  44,  99,  17,1.01476,  -1.1531
   171,'SEEBE  7    ', 138.0000,1,  44,  99,  17,1.03912,  -1.9788
   172,'HORS GEN    ',  12.0000,2,  44,  99,  17,1.02893,  -0.4113
   173,'BRETV A7    ', 138.0000,1,  60,  99,  17,1.04158,  10.1997
   174,'SPRAY G1    ',  13.2000,2,  44,  99,  17,1.04663,  -1.8276
   175,'CASCADE7    ', 138.0000,1,  44,  99,  17,1.04378,  -3.2452
   176,'CASCADE9    ',  13.2000,2,  44,  99,  17,1.04775,  -3.2259
   177,'AIRDRIE     ', 138.0000,1,  57,  99,  17,1.00981,   2.2034
   178,'BANFF  8    ',  69.0000,1,  44,  99,  17,0.98930,  -8.9558
   179,'MARIANA7    ', 138.0000,1,  25,  99,   1,1.07638,   8.7510
   180,'GHOST  7    ', 138.0000,1,  44,  99,  17,1.02657,  -1.3398
   181,'GHOST A9    ',  13.2000,2,  44,  99,  17,1.02408,  -0.8226
   183,'BEARSPWB    ',  13.2000,2,  44,  99,  17,1.05860,   0.2631
   184,'BEARSPAW    ', 138.0000,1,  44,  99,  17,1.01960,   0.0283
   187,'BEDDING1    ', 240.0000,1,  50,  99,   3,1.04160,   4.1023
   188,'ANG COCA    ',  25.0000,1,  44,  99,  17,1.03311,  -5.0967
   189,'ANG COCB    ',  13.8000,2,  44,  99,  17,0.99874,  -6.0468
   190,'SPRAY G2    ',  13.2000,2,  44,  99,  17,1.04678,  -2.6313
   191,'ANG COCH    ', 138.0000,1,  44,  99,  17,1.01385,  -1.6699
   192,'NELSON L    ', 138.0000,1,  31,  99,  17,1.02272,   6.4933
   193,'KANANAS7    ', 138.0000,1,  44,  99,  17,1.03948,  -1.9515
   194,'LAKE LO8    ',  69.0000,1,  44,  99,  17,0.95690, -10.7466
   195,'RUNDLE S    ', 138.0000,1,  44,  99,  17,1.04737,  -2.7522
   196,'KANANAS9    ',  12.0000,2,  44,  99,  17,1.04786,  -0.3122
   197,'RUNDLE G    ',  13.8000,2,  44,  99,  17,1.04388,  -2.5882
   198,'BALZAC 7    ', 138.0000,1,   6,  99,  17,1.02708,   2.3355
   199,'SHELL J7    ', 138.0000,1,  44,  99,  17,1.02430,  -0.9884
   201,'JUMPPND7    ', 138.0000,1,  44,  99,  17,1.03236,  -1.2951
   202,'SARCEE 7    ', 138.0000,1,   6,  99,  17,1.01986,   0.7959
   203,'SARCEE C    ',  13.8000,1,   6,  99,  17,1.05955,   0.7279
   204,'MCMILLA4    ', 240.0000,1,  25,  99,   1,1.11624,  11.1674
   205,'AMOCO R7    ', 138.0000,1,  38,  99,  17,1.01165,   1.6028
   206,'LAC LA 8    ',  69.0000,1,  40,  99,  17,1.00832,   7.1543
   207,'JANET  7    ', 138.0000,1,   6,  99,  17,1.01939,   1.6183
   208,'ENMX2S 7    ', 138.0000,1,   6,  99,   3,1.01564,   0.6775
   209,'BRETONA1    ', 138.0000,1,  60,  99,  17,1.04060,   9.8462
   211,'MOUNT A7    ', 138.0000,1,  44,  99,  17,1.04361,  -2.3912
   213,'HAIGRIVE    ', 138.0000,1,  17,  99,   1,1.09272,  -0.2055
   214,'POCATEA9    ',  13.8000,2,  44,  99,  17,1.02119,  -2.0224
   215,'TEX.W.P7    ', 138.0000,1,  30,  99,  17,0.99883,   7.8279
   216,'BARRIER7    ', 138.0000,1,  44,  99,  17,1.04101,  -2.1492
   218,'BLACKMUD    ', 138.0000,1,  60,  99,  17,1.03463,   8.1591
   219,'KILLARN7    ', 138.0000,1,  37,  99,  17,1.00315,   6.4968
   220,'HAYTER 7    ', 138.0000,1,  37,  99,  17,0.99179,   5.9276
   222,'BARRIER9    ',  13.2000,2,  44,  99,  17,1.03000,  -2.0786
   223,'PINCHER8    ',  69.0000,1,  53,  99,  17,1.04036,   7.1460
   224,'PINCHER7    ', 138.0000,1,  53,  99,  17,1.08270,   6.7000
   225,'WARE JCT    ', 240.0000,1,  47,  99,  17,1.07441,  10.0062
   226,'DRYWOOD8    ',  69.0000,1,  55,  99,  17,1.04123,   5.8812
   227,'SHELL WA    ',  69.0000,1,  55,  99,  17,1.02930,   5.6487
   228,'YARROW 8    ',  69.0000,1,  55,  99,  17,1.04100,   5.8740
   229,'170AL-TA    ', 138.0000,1,  53,  99,  17,1.08142,   6.3640
   230,'OLDMAN D    ', 138.0000,1,  53,  99,   1,1.08409,   7.9135
   231,'N SHELL8    ',  69.0000,1,  55,  99,  17,1.02898,   5.5961
   232,'COLEMAN7    ', 138.0000,1,  53,  99,  17,1.07098,   3.7624
   233,'DRYWOOD7    ', 138.0000,1,  55,  99,  17,1.07609,   6.5700
   234,'CASTRIV1    ', 138.0000,1,  53,  99,  44,1.08143,   6.3648
   235,'STAVELY7    ', 138.0000,1,  49,  99,  17,1.03036,   3.0779
   236,'HIGH RI8    ',  69.0000,1,  46,  99,  17,1.06120,  -0.2035
   237,'FORT MA7    ', 138.0000,1,  53,  99,  17,1.04131,   4.5673
   238,'BLACK D7    ', 138.0000,1,  46,  99,  17,0.99745,   0.2213
   239,'OKOTOKS7    ', 138.0000,1,  46,  99,  17,1.00414,   0.6022
   240,'MAGCAN 7    ', 138.0000,1,  46,  99,  17,1.00265,   0.5644
   241,'BLACK D8    ',  69.0000,1,  46,  99,  17,1.03629,  -1.0862
   242,'HIGH RI7    ', 138.0000,1,  46,  99,  17,1.00103,   0.5294
   243,'HARTELL7    ', 138.0000,1,  46,  99,  17,0.99840,   0.2847
   244,'VULCAN 7    ', 138.0000,1,  49,  99,  17,1.02575,   2.5529
   245,'GLENWOO8    ',  69.0000,1,  55,  99, 191,1.03659,   6.0952
   246,'SPRING 8    ',  69.0000,1,  55,  99,  17,1.03580,   6.1221
   247,'CAVALIER    ', 138.0000,1,  45,  99,  42,1.03307,   1.6984
   248,'MAHKESES    ', 138.0000,2,  28,  99,  36,1.08437,  12.2957
   249,'878S        ', 138.0000,1,  19,  99,   1,1.07798,  -1.3500
   250,'DUCHESS7    ', 138.0000,1,  47,  99,  17,1.01267,   5.6818
   251,'GARDN1      ', 138.0000,1,  55,  99,  10,1.05085,   5.5876
   252,'CARSELA7    ', 138.0000,1,  45,  99,  17,1.02158,   2.8728
   253,'BLACKIE7    ', 138.0000,1,  45,  99,  17,1.01971,   2.2302
   254,'GLEICHE7    ', 138.0000,1,  45,  99, 191,1.02647,   1.9526
   255,'CHINOOK9    ',  34.5000,2,  53,  99,  17,1.01177,   9.9783
   256,'BROOKS 7    ', 138.0000,1,  47,  99,  17,1.01860,   5.9812
   257,'LIMESTO7    ', 138.0000,1,  38,  99,  17,1.00804,   0.8932
   258,'ELLERSLI    ', 500.0000,1,  50,  99,  17,1.05746,  20.0530
   259,'STRATHM7    ', 138.0000,1,  45,  99,  17,1.02456,   1.3764
   260,'JENNER 4    ', 240.0000,1,  48,  99,  17,1.07461,   8.0251
   262,'DOME EM4    ', 240.0000,1,  48,  99,  17,1.07104,   6.5029
   263,'EMP LIQ7    ', 138.0000,1,  48,  99,  17,1.06814,   5.7728
   264,'COWLEY 8    ',  69.0000,1,  53,  99,  17,1.05800,   8.4473
   265,'US WIND9    ',  34.5000,2,  53,  99,  17,1.01160,   9.7069
   266,'EMPRESA7    ', 138.0000,1,  48,  99,  17,1.07054,   5.9859
   267,'DOME EM7    ', 138.0000,1,  48,  99,  17,1.07083,   5.9840
   268,'DOME EA9    ',  13.8000,2,  48,  99,  17,1.04355,   3.9611
   269,'BURDETT7    ', 138.0000,1,  52,  99,  17,1.01860,   3.7647
   270,'SUFFIEL7    ', 138.0000,1,   4,  99,  17,1.00524,   4.2111
   271,'BULLS H7    ', 138.0000,1,   4,  99,  17,1.01950,   4.3509
   272,'TABER  7    ', 138.0000,1,  52,  99,  17,1.02427,   3.8275
   274,'VAUXHAL7    ', 138.0000,1,  52,  99,  17,1.01722,   4.0829
   275,'TILLEY 7    ', 138.0000,1,  47,  99,  17,1.00803,   5.0688
   276,'W BROOK7    ', 138.0000,1,  47,  99,  17,1.02035,   6.3251
   277,'WESTFLD7    ', 138.0000,1,  52,  99,  17,1.01802,   3.5719
   278,'WARNER 8    ',  69.0000,1,  55,  99,  17,1.02081,   4.1024
   279,'STAVELEY    ', 138.0000,1,  49,  99,  17,1.03179,   3.1903
   280,'STIRLIN8    ',  69.0000,1,  55,  99,  17,1.04193,   4.5317
   282,'HEARTLAK    ', 240.0000,1,  27,  99,   1,1.11210,  10.3604
   283,'CANMORE7    ', 138.0000,1,  44,  99,  17,1.04727,  -2.8445
   284,'BUTTE7      ', 138.0000,1,   4,  99,  17,1.01771,   4.1838
   285,'BAYMAG      ', 138.0000,1,  44,  99,  17,1.04285,  -2.6615
   286,'ENCHANT7    ', 138.0000,1,  52,  99,  17,1.01537,   4.5072
   287,'DOME EB9    ',  13.8000,2,  48,  99,  17,1.04214,   4.0947
   288,'DOME EC9    ',  13.8000,2,  48,  99,  17,1.03234,   4.7641
   289,'DOME EM9    ',  13.8000,2,  48,  99,  17,1.03095,   4.0385
   290,'BALZ COG    ', 138.0000,1,   6,  99,  42,1.02990,   2.4091
   291,'CONRAD 7    ', 138.0000,1,  52,  99,  17,1.01641,   4.3879
   292,'JENNER7     ', 138.0000,1,  48,  99,  17,1.02230,   3.7878
   293,'STIRLIN7    ', 138.0000,1,  55,  99,  17,1.03577,   4.6984
   295,'DRYCREEK    ', 138.0000,1,  57,  99,  17,1.01890,   2.2172
   296,'GOOSEL7     ', 138.0000,1,  53,  99,  17,1.08274,   6.7072
   297,'WAINWRI7    ', 138.0000,1,  32,  99,  17,1.03312,  10.0593
   298,'ALB NEWS    ', 240.0000,1,  26,  99,  17,1.07498,   6.6850
   299,'SUND866S    ',  69.0000,1,  40,  99,  17,1.01556,  10.5116
   300,'KEEP320P    ',  69.0000,1,  40,  99,  17,1.01670,  10.5782
   301,'KEEPHIL8    ',  69.0000,1,  40,  99,  17,1.01556,  10.5116
   302,'MARION 7    ', 138.0000,1,  40,  99,  17,1.03437,  13.0291
   303,'STELCO 1    ', 138.0000,1,  60,  99,  17,1.04435,  10.2009
   304,'PLAMOND7    ', 138.0000,1,  27,  99,  17,1.03236,   4.1367
   305,'LAC LA 7    ', 138.0000,1,  27,  99,  17,1.03744,   6.0201
   306,'WINEFRE7    ', 138.0000,1,  27,  99,  17,1.03213,   8.9935
   307,'FLATLTAP    ', 138.0000,1,  27,  99,  17,1.02882,   2.9014
   308,'FLATLK-2    ', 138.0000,1,  27,  99,  17,1.02827,   2.6985
   309,'MCMILLA7    ', 138.0000,1,  25,  99,   1,1.08547,  10.2821
   310,'SPRAY  S    ', 138.0000,1,  44,  99,  17,1.04678,  -2.6313
   311,'LEDUC1      ', 138.0000,1,  60,  99,  17,1.03541,   8.1360
   312,'E CROSS7    ', 138.0000,1,  57,  99,  17,1.00862,   3.4539
   313,'JOSEPH1     ', 240.0000,1,  33,  99,  17,1.03935,  10.7699
   314,'JOSEPH2     ', 138.0000,1,  33,  99,  17,1.02820,  10.2392
   315,'HUSSAR      ', 138.0000,1,  45,  99,  17,1.03235,   1.5376
   316,'LAURATP     ',  69.0000,1,  26,  99,  17,1.02265,   3.9106
   317,'CARSONA8    ',  69.0000,1,  26,  99,  17,1.02258,   3.9075
   318,'W CROSSF    ', 138.0000,1,  57,  99,  17,1.00627,   2.8856
   319,'COALSPU8    ',  69.0000,1,  29,  99,  17,1.02676,   7.5023
   320,'CHAPPIC7    ', 138.0000,1,   4,  99,  17,1.04708,   5.3120
   321,'HEARTLAK    ', 138.0000,1,  27,  99,   1,1.03086,   9.1546
   322,'CARSON 8    ',  69.0000,1,  26,  99,  17,1.02434,   4.1033
   323,'CADOMIN8    ',  69.0000,1,  29,  99,  17,1.02698,   7.4256
   324,'COALSPU7    ', 138.0000,1,  29,  99,  17,1.01647,   7.5305
   325,'PEGAS.L8    ',  69.0000,1,  26,  99,  17,1.02320,   3.9993
   326,'COAL VA7    ', 138.0000,1,  29,  99,  17,1.01448,   7.3205
   328,'MACLEOD1    ', 138.0000,1,  53,  99,  19,1.08316,   7.9327
   329,'POCATER7    ', 138.0000,1,  44,  99,  17,1.04864,  -1.8108
   330,'P C BRA7    ', 138.0000,1,  30,  99,  17,0.99902,   7.4463
   331,'VIOL GR7    ', 138.0000,1,  30,  99,  17,0.99261,  10.5051
   332,'DVPL IA9    ',  13.8000,2,  30,  99,   4,1.04763,  14.5057
   333,'QUENSTWN    ', 138.0000,1,  45,  99,  17,1.02296,   2.6723
   334,'SUMMER04    ', 138.0000,1,  53,  99,  17,1.08766,   8.0714
   336,'SUMMER01    ', 138.0000,1,  53,  99,  19,1.08760,   8.0728
   337,'ESSO JU8    ',  69.0000,1,  26,  99,  17,1.02106,   3.1556
   340,'NAMAKA 7    ', 138.0000,1,  45,  99,  17,1.03132,   1.6114
   342,'SUND#4GN    ',  20.0000,2,  40,  99,  17,0.98700,  19.1270
   343,'TABERW1     ', 138.0000,1,  52,  99, 421,1.02090,   4.7092
   344,'WARLOW7     ', 138.0000,1,  48,  99,  17,1.02145,   3.6619
   345,'SUND#5GN    ',  20.0000,2,  40,  99,  17,0.99500,  15.6812
   346,'GOOSEL4     ', 240.0000,1,  53,  99,  17,1.08619,   6.6159
   347,'LUNDBRE8    ',  69.0000,1,  53,  99,  17,1.05849,   8.4081
   348,'LEISMER4    ', 240.0000,1,  25,  99,  17,1.10963,  12.7614
   350,'SUND#6GN    ',  20.0000,2,  40,  99,  17,0.98800,  21.1745
   353,'SUND204S    ',  69.0000,1,  40,  99,  17,1.01197,  11.2221
   356,'BON GLE7    ', 138.0000,1,  31,  99,  17,1.03609,   8.5261
   357,'STALBE7     ', 138.0000,1,  60,  99,  17,1.03119,   8.9384
   358,'SODER1      ', 138.0000,1,  53,  99, 231,1.08669,   8.3406
   359,'ACHESON     ', 138.0000,1,  60,  99,  17,1.02518,   8.1962
   360,'STONY P7    ', 138.0000,1,  40,  99,  17,1.02254,   8.2897
   361,'EDGERTO8    ',  69.0000,4,  37,  99,  17,1.00000,   0.0000
   362,'EDGERTO7    ', 138.0000,1,  37,  99,  17,1.02503,   6.5590
   363,'NW CARD7    ', 138.0000,1,  60,  99,  17,1.03281,   8.2390
   364,'CARVEL01    ', 138.0000,1,  40,  99,  17,1.02597,   8.8392
   365,'BUFORD 7    ', 138.0000,1,  31,  99,  17,1.03185,   8.0076
   366,'VISCOUNT    ', 138.0000,1,  60,  99,  17,1.03439,   9.1605
   368,'CHEVIOT1    ', 138.0000,1,  29,  99,  17,1.01315,   7.2595
   369,'CHRISLK1    ', 240.0000,1,  25,  99,  17,1.10483,  12.7863
   370,'SHELL C7    ', 138.0000,1,  38,  99,  17,1.01092,   1.8474
   372,'WAB27398    ',  69.0000,1,  40,  99,  17,1.02628,   9.2002
   373,'IPL HAR7    ', 138.0000,1,  32,  99,  17,1.04291,  11.0338
   374,'BIGSTON7    ', 138.0000,1,  31,  99,  17,1.03436,   9.3020
   375,'POCATER9    ',  25.0000,1,  44,  99,  17,1.02241,  -2.1865
   376,'INTERLB9    ',  25.0000,1,  44,  99,  17,1.01818,  -2.0413
   377,'INTERLA9    ',   4.1600,2,  44,  99,  17,1.03085,  -1.9870
   378,'STELCO 2    ', 138.0000,1,  60,  99,  17,1.04440,  10.1999
   379,'THREE A9    ',  25.0000,1,  44,  99,  17,1.02009,  -3.3794
   380,'RUNDLE 9    ',  25.0000,1,  44,  99,  17,1.03561,  -4.0750
   381,'THREE S9    ',   6.9000,2,  44,  99,  17,1.04511,  -3.0235
   382,'SHELL RA    ', 138.0000,1,  38,  99,  17,1.01143,   1.8864
   383,'NOVA ST1    ', 138.0000,2,  35,  99,  17,1.02369,   5.7867
   384,'UC PRENT    ', 138.0000,1,  35,  99,  17,1.02141,   5.3937
   385,'SHELL SC    ', 138.0000,1,  38,  99,  17,1.01488,   2.3792
   386,'SHELL EA    ', 138.0000,1,  38,  99,  17,1.00637,   1.2424
   387,'COMINCO7    ', 138.0000,1,  35,  99,  17,1.02246,   5.6597
   388,'ELLIS  7    ', 138.0000,1,  35,  99,  17,1.02110,   5.4021
   389,'HILLRIDG    ', 138.0000,1,  54,  99,  10,1.03853,   4.8088
   391,'ALBCHEM7    ', 138.0000,1,  33,  99,  17,1.03602,   9.9731
   392,'ALPAC1      ', 138.0000,1,  27,  99, 301,1.02011,   0.9984
   394,'ASTOTIN     ', 138.0000,1,  33,  99,  17,1.03699,   9.9365
   395,'NITON  7    ', 138.0000,1,  29,  99,  17,1.01537,   7.4069
   396,'GLEN4428    ',  69.0000,1,  40,  99,  17,1.00797,   7.3554
   397,'PINEDAL7    ', 138.0000,1,  29,  99,  17,1.01385,   7.4247
   398,'BROOKFLD    ', 138.0000,1,  35,  99,  17,1.02345,   5.7731
   399,'BASSAN7     ', 138.0000,1,  47,  99,  17,1.01581,   4.9391
   400,'MONARCH7    ', 138.0000,1,  54,  99,  17,1.04578,   4.6561
   401,'HAYS   7    ', 138.0000,1,  52,  99,  17,1.01909,   3.8767
   402,'KETTLES1    ', 138.0000,1,  53,  99, 192,1.08387,   7.0989
   403,'KEEP#3GN    ',  22.0000,2,  40,  99,  17,1.01000,  25.4627
   405,'CONKLIN2    ', 240.0000,2,  25,  99, 251,1.10000,  12.9851
   406,'CHIN CH7    ', 138.0000,1,  54,  99,  17,1.03968,   4.7462
   407,'CHIN CH9    ',  13.8000,2,  54,  99,  17,1.04493,   6.8250
   408,'WHITEGE9    ',  12.5000,2,  26,  99,  17,1.01198,   9.8810
   409,'KETTLES     ', 138.0000,1,  53,  99,  17,1.08387,   7.0977
   410,'WHITEGE8    ',  69.0000,1,  26,  99,  17,1.04831,   5.9907
   411,'CHEV KG7    ', 138.0000,1,  24,  99,  17,1.02166,   5.1024
   412,'BENBOW 7    ', 138.0000,1,  24,  99,  17,1.02187,   5.1145
   413,'RAY RES8    ',  69.0000,1,  55,  99,  17,1.04569,   6.1466
   414,'RAY RES9    ',  13.8000,2,  55,  99,  17,1.03923,   7.4970
   415,'MARLBOR1    ', 138.0000,1,  29,  99,  17,1.02288,   7.8532
   417,'WAUP1       ', 138.0000,1,  27,  99,  17,1.02894,   2.9429
   420,'KEEPHIL4    ', 240.0000,1,  50,  99,  17,1.05300,  20.6869
   421,'KEEPHIL5    ', 240.0000,1,  40,  99,  17,1.05573,  21.4706
   422,'KEEP#1GN    ',  19.0000,2,  40,  99,  17,0.99500,  29.8205
   423,'KEEPHIL7    ', 138.0000,1,  40,  99,  17,1.01496,  17.4801
   424,'KEEP#2GN    ',  19.0000,2,  40,  99,  17,0.99500,  27.5662
   425,'NOSE CR7    ', 138.0000,1,  57,  99,  17,1.00685,   2.6309
   429,'SUND BL8    ',  69.0000,1,  40,  99,  17,1.01264,  11.2147
   430,'W BROOK4    ', 240.0000,1,  47,  99,  17,1.07059,   7.7680
   431,'KEEP_3      ', 138.0000,1,  40,  99,  17,1.01496,  17.4801
   437,'TMPL2GA7    ', 138.0000,1,  40,  99,  17,1.02941,   8.9780
   438,'CAN LIQ7    ', 138.0000,1,  60,  99,  17,1.04026,  10.0894
   440,'TRUE WEL    ', 138.0000,1,  31,  99,  17,1.03372,   8.5993
   444,'SPRINGB7    ', 138.0000,1,  44,  99,  17,1.02682,  -0.4333
   445,'CUTNG L7    ', 138.0000,1,  47,  99,  17,1.01469,   5.8008
   446,'VICTR A     ',  13.8000,1,  33,  99,  17,0.98963,   6.4626
   447,'BELLYIA9    ',   4.1600,2,  55,  99,   8,1.06186,   6.8605
   448,'MARY IA9    ',   4.1600,2,  55,  99,   8,1.01971,   6.6590
   449,'WATERIA9    ',   4.1600,2,  55,  99,   8,1.04822,   8.3696
   450,'IRRICAN1    ',   4.1600,2,  55,  99,  17,1.04788,   3.6973
   459,'ROSEVAL1    ', 138.0000,1,  40,  99,  17,1.03439,  13.0482
   464,'W CASCAD    ',  25.0000,4,  44,  99,  17,1.00000,   0.0000
   468,'LEISMER7    ', 138.0000,1,  25,  99,  17,1.04916,  12.7027
   478,'BANFF  9    ',  25.0000,1,  44,  99,  17,1.01987,  -7.6608
   479,'RUNDLE H    ',  13.8000,2,  44,  99,  17,1.03641,  -3.2259
   483,'TUCUMAN7    ', 138.0000,1,  32,  99,  17,1.04372,  11.1302
   484,'CLIPPER7    ', 138.0000,1,  32,  99,  41,1.04291,  11.0340
   490,'GENES 39    ',  22.0000,2,  40,  99,   5,1.01100,  30.4944
   491,'GENES 19    ',  20.5000,2,  40,  99,   5,1.00700,  29.2193
   492,'GENES 29    ',  20.5000,2,  40,  99,   5,1.01000,  30.7088
   497,'ROSS 8      ',  14.4000,1,  60,  99,   5,1.00005,  11.3364
   498,'ROSS 9      ',  14.4000,1,  60,  99,   5,1.00008,  11.3404
   499,'ROSS 109    ',  14.4000,1,  60,  99,   5,1.00008,  11.3404
   502,'HARDIST8    ',  69.0000,1,  60,  99,   5,1.04505,  11.8352
   503,'SUMMIT_7    ', 138.0000,1,  57,  99,   3,1.00694,   2.6548
   505,'JASPER 4    ', 240.0000,1,  50,  99,   5,1.04267,  12.0911
   506,'BELLAMY4    ', 240.0000,1,  50,  99,   5,1.04929,  13.8123
   507,'ROSSDALE    ',  69.0000,1,  60,  99,   5,1.04364,  11.3477
   508,'HIGHFEED    ',  14.4000,1,  60,  99,   5,0.95848,  11.3477
   509,'ARGYLL W    ', 240.0000,1,  50,  99,   5,1.04926,  13.8011
   511,'SUMMERS1    ', 240.0000,1,  60,  99,   5,1.04653,  14.4993
   512,'DOME   4    ', 240.0000,1,  50,  99,   5,1.04597,  14.8410
   513,'LAMBTON4    ', 240.0000,1,  50,  99,   5,1.04213,  13.7487
   514,'CLOVERB4    ', 240.0000,1,  60,  99,   5,1.04159,  13.1545
   515,'BROADMO7    ', 138.0000,1,  60,  99,  17,1.04097,  10.1242
   516,'CLOVERB8    ',  69.0000,1,  60,  99,   5,1.04787,  11.9929
   518,'ARGYLL E    ', 240.0000,1,  50,  99,   5,1.04912,  13.9148
   519,'CASTLEDN    ', 240.0000,1,  50,  99,   5,1.03823,  11.2874
   520,'VICTORIA    ', 240.0000,1,  60,  99,   5,1.03623,  11.2881
   521,'PETROLIA    ', 240.0000,1,  60,  99,   5,1.04769,  13.7283
   523,'MEADOWL2    ',  69.0000,1,  60,  99,   5,1.04218,  11.2433
   525,'GENESEE4    ', 500.0000,1,  50,  99,   5,1.05871,  22.8874
   526,'GENESEE7    ', 138.0000,1,  40,  99,   5,0.98475,  22.6606
   527,'JASPER 8    ',  69.0000,1,  60,  99,   5,1.00939,  11.0885
   528,'KENNDALE    ',  69.0000,1,  60,  99,   5,1.04636,  11.9144
   529,'MEADOWL1    ',  69.0000,1,  60,  99,   5,1.00731,  10.9796
   530,'NAMAO  8    ',  69.0000,1,  60,  99,   5,1.04510,  11.8545
   532,'STRACONA    ',  69.0000,1,  60,  99,   5,1.03598,  11.2298
   533,'VICTORIA    ',  69.0000,1,  60,  99,   5,1.04411,  11.2747
   534,'WOODCRF1    ',  69.0000,1,  60,  99,   5,1.00575,  10.9619
   535,'GARNEAU8    ',  69.0000,1,  60,  99,   5,1.04270,  11.2938
   537,'FIBERGL7    ', 138.0000,1,  60,  99,   5,1.04017,  10.0841